
 OpenBabel11132015233D

  5  4  0  0  1  0  0  0  0  0999 V2000
   -3.5455   -0.0983    0.0000 C   0  0  1  0  0  0  0  0  0  0  0  0
   -2.4755   -0.0983    0.0000 Br  0  0  0  0  0  0  0  0  0  0  0  0
   -3.9022   -0.8885    0.6271 Cl  0  0  0  0  0  0  0  0  0  0  0  0
   -3.9022   -0.2462   -0.9979 H   0  0  0  0  0  0  0  0  0  0  0  0
   -3.9022    0.8399    0.3708 F   0  0  0  0  0  0  0  0  0  0  0  0
  1  4  1  6  0  0  0
  1  2  1  0  0  0  0
  1  5  1  0  0  0  0
  1  3  1  0  0  0  0
M  END
